# Simple XSF structure
 DIM-GROUP
           3           1
 PRIMVEC
    6.0053787310    0.0000000000    0.0000000000
    0.0000000000    6.0053787310    0.0000000000
    0.0000000000    0.0000000000    6.0053787310
 CONVVEC
    6.0053787310    0.0000000000    0.0000000000
    0.0000000000    6.0053787310    0.0000000000
    0.0000000000    0.0000000000    6.0053787310
 PRIMCOORD
           5           1
 55      0.0000000000     0.0000000000     0.0000000000     0.0000000000     0.0000000000     0.0000000000
 82      3.0026888900     3.0026888900     3.0026888900     0.0000000000     0.0000000000     0.0000000000
 35      0.0000000000     3.0026888900     3.0026888900     0.0000000000     0.0000000000     0.0000000000
 35      3.0026888900     0.0000000000     3.0026888900     0.0000000000     0.0000000000     0.0000000000
 35      3.0026888900     3.0026888900     0.0000000000     0.0000000000     0.0000000000     0.0000000000
 CONVCOORD
           5           1
 55      0.0000000000     0.0000000000     0.0000000000
 82      3.0026888900     3.0026888900     3.0026888900
 35      0.0000000000     3.0026888900     3.0026888900
 35      3.0026888900     0.0000000000     3.0026888900
 35      3.0026888900     3.0026888900     0.0000000000


