 INFO
nunit      1    1    1
unit   cell
celltype   convcell
shape   parapipedal
 END_INFO
 DIM-GROUP
           3           1
 PRIMVEC
    6.0053787310    0.0000000000    0.0000000000
    0.0000000000    6.0053787310    0.0000000000
    0.0000000000    0.0000000000    6.0053787310
 CONVVEC
    6.0053787310    0.0000000000    0.0000000000
    0.0000000000    6.0053787310    0.0000000000
    0.0000000000    0.0000000000    6.0053787310
 PRIMCOORD
           5           1
 55      0.0000000000     0.0000000000     0.0000000000     0.0000000000     0.0000000000     0.0000000000
 82      3.0026888900     3.0026888900     3.0026888900     0.0000000000     0.0000000000     0.0000000000
 35      0.0000000000     3.0026888900     3.0026888900     0.0000000000     0.0000000000     0.0000000000
 35      3.0026888900     0.0000000000     3.0026888900     0.0000000000     0.0000000000     0.0000000000
 35      3.0026888900     3.0026888900     0.0000000000     0.0000000000     0.0000000000     0.0000000000
 CONVCOORD
           5           1
 55      0.0000000000     0.0000000000     0.0000000000
 82      3.0026888900     3.0026888900     3.0026888900
 35      0.0000000000     3.0026888900     3.0026888900
 35      3.0026888900     0.0000000000     3.0026888900
 35      3.0026888900     3.0026888900     0.0000000000
 RECIP-PRIMVEC
    0.1665173913    0.0000000000    0.0000000000

    0.0000000000    0.1665173913    0.0000000000

    0.0000000000    0.0000000000    0.1665173913

 RECIP-CONVVEC
    0.1665173913    0.0000000000    0.0000000000

    0.0000000000    0.1665173913    0.0000000000

    0.0000000000    0.0000000000    0.1665173913

 WIGNER-SEITZ-PRIMCELL
           4
 -0.3002689E+01 -0.3002689E+01  0.3002689E+01  -0.1000000E+01  0.0000000E+00  0.0000000E+00
 -0.3002689E+01  0.3002689E+01  0.3002689E+01  -0.1000000E+01  0.0000000E+00  0.0000000E+00
 -0.3002689E+01  0.3002689E+01 -0.3002689E+01  -0.1000000E+01  0.0000000E+00  0.0000000E+00
 -0.3002689E+01 -0.3002689E+01 -0.3002689E+01  -0.1000000E+01  0.0000000E+00  0.0000000E+00
           4
 -0.3002689E+01 -0.3002689E+01 -0.3002689E+01  -0.0000000E+00 -0.1000000E+01 -0.0000000E+00
  0.3002689E+01 -0.3002689E+01 -0.3002689E+01  -0.0000000E+00 -0.1000000E+01 -0.0000000E+00
  0.3002689E+01 -0.3002689E+01  0.3002689E+01  -0.0000000E+00 -0.1000000E+01 -0.0000000E+00
 -0.3002689E+01 -0.3002689E+01  0.3002689E+01  -0.0000000E+00 -0.1000000E+01 -0.0000000E+00
           4
 -0.3002689E+01  0.3002689E+01 -0.3002689E+01   0.0000000E+00  0.0000000E+00 -0.1000000E+01
  0.3002689E+01  0.3002689E+01 -0.3002689E+01   0.0000000E+00  0.0000000E+00 -0.1000000E+01
  0.3002689E+01 -0.3002689E+01 -0.3002689E+01   0.0000000E+00  0.0000000E+00 -0.1000000E+01
 -0.3002689E+01 -0.3002689E+01 -0.3002689E+01   0.0000000E+00  0.0000000E+00 -0.1000000E+01
           4
  0.3002689E+01 -0.3002689E+01  0.3002689E+01  -0.0000000E+00 -0.0000000E+00  0.1000000E+01
  0.3002689E+01  0.3002689E+01  0.3002689E+01  -0.0000000E+00 -0.0000000E+00  0.1000000E+01
 -0.3002689E+01  0.3002689E+01  0.3002689E+01  -0.0000000E+00 -0.0000000E+00  0.1000000E+01
 -0.3002689E+01 -0.3002689E+01  0.3002689E+01  -0.0000000E+00 -0.0000000E+00  0.1000000E+01
           4
 -0.3002689E+01  0.3002689E+01  0.3002689E+01   0.0000000E+00  0.1000000E+01  0.0000000E+00
  0.3002689E+01  0.3002689E+01  0.3002689E+01   0.0000000E+00  0.1000000E+01  0.0000000E+00
  0.3002689E+01  0.3002689E+01 -0.3002689E+01   0.0000000E+00  0.1000000E+01  0.0000000E+00
 -0.3002689E+01  0.3002689E+01 -0.3002689E+01   0.0000000E+00  0.1000000E+01  0.0000000E+00
           4
  0.3002689E+01 -0.3002689E+01  0.3002689E+01   0.1000000E+01 -0.0000000E+00 -0.0000000E+00
  0.3002689E+01 -0.3002689E+01 -0.3002689E+01   0.1000000E+01 -0.0000000E+00 -0.0000000E+00
  0.3002689E+01  0.3002689E+01 -0.3002689E+01   0.1000000E+01 -0.0000000E+00 -0.0000000E+00
  0.3002689E+01  0.3002689E+01  0.3002689E+01   0.1000000E+01 -0.0000000E+00 -0.0000000E+00
 WIGNER-SEITZ-PRIMCELL_END
 WIGNER-SEITZ-CONVCELL
           4
 -0.3002689E+01 -0.3002689E+01  0.3002689E+01  -0.1000000E+01  0.0000000E+00  0.0000000E+00
 -0.3002689E+01  0.3002689E+01  0.3002689E+01  -0.1000000E+01  0.0000000E+00  0.0000000E+00
 -0.3002689E+01  0.3002689E+01 -0.3002689E+01  -0.1000000E+01  0.0000000E+00  0.0000000E+00
 -0.3002689E+01 -0.3002689E+01 -0.3002689E+01  -0.1000000E+01  0.0000000E+00  0.0000000E+00
           4
 -0.3002689E+01 -0.3002689E+01 -0.3002689E+01  -0.0000000E+00 -0.1000000E+01 -0.0000000E+00
  0.3002689E+01 -0.3002689E+01 -0.3002689E+01  -0.0000000E+00 -0.1000000E+01 -0.0000000E+00
  0.3002689E+01 -0.3002689E+01  0.3002689E+01  -0.0000000E+00 -0.1000000E+01 -0.0000000E+00
 -0.3002689E+01 -0.3002689E+01  0.3002689E+01  -0.0000000E+00 -0.1000000E+01 -0.0000000E+00
           4
 -0.3002689E+01  0.3002689E+01 -0.3002689E+01   0.0000000E+00  0.0000000E+00 -0.1000000E+01
  0.3002689E+01  0.3002689E+01 -0.3002689E+01   0.0000000E+00  0.0000000E+00 -0.1000000E+01
  0.3002689E+01 -0.3002689E+01 -0.3002689E+01   0.0000000E+00  0.0000000E+00 -0.1000000E+01
 -0.3002689E+01 -0.3002689E+01 -0.3002689E+01   0.0000000E+00  0.0000000E+00 -0.1000000E+01
           4
  0.3002689E+01 -0.3002689E+01  0.3002689E+01  -0.0000000E+00 -0.0000000E+00  0.1000000E+01
  0.3002689E+01  0.3002689E+01  0.3002689E+01  -0.0000000E+00 -0.0000000E+00  0.1000000E+01
 -0.3002689E+01  0.3002689E+01  0.3002689E+01  -0.0000000E+00 -0.0000000E+00  0.1000000E+01
 -0.3002689E+01 -0.3002689E+01  0.3002689E+01  -0.0000000E+00 -0.0000000E+00  0.1000000E+01
           4
 -0.3002689E+01  0.3002689E+01  0.3002689E+01   0.0000000E+00  0.1000000E+01  0.0000000E+00
  0.3002689E+01  0.3002689E+01  0.3002689E+01   0.0000000E+00  0.1000000E+01  0.0000000E+00
  0.3002689E+01  0.3002689E+01 -0.3002689E+01   0.0000000E+00  0.1000000E+01  0.0000000E+00
 -0.3002689E+01  0.3002689E+01 -0.3002689E+01   0.0000000E+00  0.1000000E+01  0.0000000E+00
           4
  0.3002689E+01 -0.3002689E+01  0.3002689E+01   0.1000000E+01 -0.0000000E+00 -0.0000000E+00
  0.3002689E+01 -0.3002689E+01 -0.3002689E+01   0.1000000E+01 -0.0000000E+00 -0.0000000E+00
  0.3002689E+01  0.3002689E+01 -0.3002689E+01   0.1000000E+01 -0.0000000E+00 -0.0000000E+00
  0.3002689E+01  0.3002689E+01  0.3002689E+01   0.1000000E+01 -0.0000000E+00 -0.0000000E+00
 WIGNER-SEITZ-CONVCELL_END
 BRILLOUIN-ZONE-PRIMCELL
           4
 -0.8325870E-01 -0.8325870E-01  0.8325870E-01  -0.1000000E+01  0.0000000E+00  0.0000000E+00
 -0.8325870E-01  0.8325870E-01  0.8325870E-01  -0.1000000E+01  0.0000000E+00  0.0000000E+00
 -0.8325870E-01  0.8325870E-01 -0.8325870E-01  -0.1000000E+01  0.0000000E+00  0.0000000E+00
 -0.8325870E-01 -0.8325870E-01 -0.8325870E-01  -0.1000000E+01  0.0000000E+00  0.0000000E+00
           4
 -0.8325870E-01 -0.8325870E-01 -0.8325870E-01  -0.0000000E+00 -0.1000000E+01 -0.0000000E+00
  0.8325870E-01 -0.8325870E-01 -0.8325870E-01  -0.0000000E+00 -0.1000000E+01 -0.0000000E+00
  0.8325870E-01 -0.8325870E-01  0.8325870E-01  -0.0000000E+00 -0.1000000E+01 -0.0000000E+00
 -0.8325870E-01 -0.8325870E-01  0.8325870E-01  -0.0000000E+00 -0.1000000E+01 -0.0000000E+00
           4
 -0.8325870E-01  0.8325870E-01 -0.8325870E-01   0.0000000E+00  0.0000000E+00 -0.1000000E+01
  0.8325870E-01  0.8325870E-01 -0.8325870E-01   0.0000000E+00  0.0000000E+00 -0.1000000E+01
  0.8325870E-01 -0.8325870E-01 -0.8325870E-01   0.0000000E+00  0.0000000E+00 -0.1000000E+01
 -0.8325870E-01 -0.8325870E-01 -0.8325870E-01   0.0000000E+00  0.0000000E+00 -0.1000000E+01
           4
 -0.8325870E-01 -0.8325870E-01  0.8325870E-01  -0.0000000E+00 -0.0000000E+00  0.1000000E+01
  0.8325870E-01 -0.8325870E-01  0.8325870E-01  -0.0000000E+00 -0.0000000E+00  0.1000000E+01
  0.8325870E-01  0.8325870E-01  0.8325870E-01  -0.0000000E+00 -0.0000000E+00  0.1000000E+01
 -0.8325870E-01  0.8325870E-01  0.8325870E-01  -0.0000000E+00 -0.0000000E+00  0.1000000E+01
           4
 -0.8325870E-01  0.8325870E-01  0.8325870E-01   0.0000000E+00  0.1000000E+01  0.0000000E+00
  0.8325870E-01  0.8325870E-01  0.8325870E-01   0.0000000E+00  0.1000000E+01  0.0000000E+00
  0.8325870E-01  0.8325870E-01 -0.8325870E-01   0.0000000E+00  0.1000000E+01  0.0000000E+00
 -0.8325870E-01  0.8325870E-01 -0.8325870E-01   0.0000000E+00  0.1000000E+01  0.0000000E+00
           4
  0.8325870E-01 -0.8325870E-01 -0.8325870E-01   0.1000000E+01 -0.0000000E+00 -0.0000000E+00
  0.8325870E-01  0.8325870E-01 -0.8325870E-01   0.1000000E+01 -0.0000000E+00 -0.0000000E+00
  0.8325870E-01  0.8325870E-01  0.8325870E-01   0.1000000E+01 -0.0000000E+00 -0.0000000E+00
  0.8325870E-01 -0.8325870E-01  0.8325870E-01   0.1000000E+01 -0.0000000E+00 -0.0000000E+00
 BRILLOUIN-ZONE-PRIMCELL_END
 BRILLOUIN-ZONE-CONVCELL
           4
 -0.8325870E-01 -0.8325870E-01  0.8325870E-01  -0.1000000E+01  0.0000000E+00  0.0000000E+00
 -0.8325870E-01  0.8325870E-01  0.8325870E-01  -0.1000000E+01  0.0000000E+00  0.0000000E+00
 -0.8325870E-01  0.8325870E-01 -0.8325870E-01  -0.1000000E+01  0.0000000E+00  0.0000000E+00
 -0.8325870E-01 -0.8325870E-01 -0.8325870E-01  -0.1000000E+01  0.0000000E+00  0.0000000E+00
           4
 -0.8325870E-01 -0.8325870E-01 -0.8325870E-01  -0.0000000E+00 -0.1000000E+01 -0.0000000E+00
  0.8325870E-01 -0.8325870E-01 -0.8325870E-01  -0.0000000E+00 -0.1000000E+01 -0.0000000E+00
  0.8325870E-01 -0.8325870E-01  0.8325870E-01  -0.0000000E+00 -0.1000000E+01 -0.0000000E+00
 -0.8325870E-01 -0.8325870E-01  0.8325870E-01  -0.0000000E+00 -0.1000000E+01 -0.0000000E+00
           4
 -0.8325870E-01  0.8325870E-01 -0.8325870E-01   0.0000000E+00  0.0000000E+00 -0.1000000E+01
  0.8325870E-01  0.8325870E-01 -0.8325870E-01   0.0000000E+00  0.0000000E+00 -0.1000000E+01
  0.8325870E-01 -0.8325870E-01 -0.8325870E-01   0.0000000E+00  0.0000000E+00 -0.1000000E+01
 -0.8325870E-01 -0.8325870E-01 -0.8325870E-01   0.0000000E+00  0.0000000E+00 -0.1000000E+01
           4
 -0.8325870E-01 -0.8325870E-01  0.8325870E-01  -0.0000000E+00 -0.0000000E+00  0.1000000E+01
  0.8325870E-01 -0.8325870E-01  0.8325870E-01  -0.0000000E+00 -0.0000000E+00  0.1000000E+01
  0.8325870E-01  0.8325870E-01  0.8325870E-01  -0.0000000E+00 -0.0000000E+00  0.1000000E+01
 -0.8325870E-01  0.8325870E-01  0.8325870E-01  -0.0000000E+00 -0.0000000E+00  0.1000000E+01
           4
 -0.8325870E-01  0.8325870E-01  0.8325870E-01   0.0000000E+00  0.1000000E+01  0.0000000E+00
  0.8325870E-01  0.8325870E-01  0.8325870E-01   0.0000000E+00  0.1000000E+01  0.0000000E+00
  0.8325870E-01  0.8325870E-01 -0.8325870E-01   0.0000000E+00  0.1000000E+01  0.0000000E+00
 -0.8325870E-01  0.8325870E-01 -0.8325870E-01   0.0000000E+00  0.1000000E+01  0.0000000E+00
           4
  0.8325870E-01 -0.8325870E-01 -0.8325870E-01   0.1000000E+01 -0.0000000E+00 -0.0000000E+00
  0.8325870E-01  0.8325870E-01 -0.8325870E-01   0.1000000E+01 -0.0000000E+00 -0.0000000E+00
  0.8325870E-01  0.8325870E-01  0.8325870E-01   0.1000000E+01 -0.0000000E+00 -0.0000000E+00
  0.8325870E-01 -0.8325870E-01  0.8325870E-01   0.1000000E+01 -0.0000000E+00 -0.0000000E+00
 BRILLOUIN-ZONE-CONVCELL_END
 ATOMS
   55    0.0000000000    0.0000000000    0.0000000000    0.0000000000    0.0000000000    0.0000000000
   82    3.0026888900    3.0026888900    3.0026888900    0.0000000000    0.0000000000    0.0000000000
   35    0.0000000000    3.0026888900    3.0026888900    0.0000000000    0.0000000000    0.0000000000
   35    3.0026888900    0.0000000000    3.0026888900    0.0000000000    0.0000000000    0.0000000000
   35    3.0026888900    3.0026888900    0.0000000000    0.0000000000    0.0000000000    0.0000000000
   55    0.0000000000    0.0000000000    6.0053787310    0.0000000000    0.0000000000    0.0000000000
   35    3.0026888900    3.0026888900    6.0053787310    0.0000000000    0.0000000000    0.0000000000
   55    0.0000000000    6.0053787310    0.0000000000    0.0000000000    0.0000000000    0.0000000000
   35    3.0026888900    6.0053787310    3.0026888900    0.0000000000    0.0000000000    0.0000000000
   55    0.0000000000    6.0053787310    6.0053787310    0.0000000000    0.0000000000    0.0000000000
   55    6.0053787310    0.0000000000    0.0000000000    0.0000000000    0.0000000000    0.0000000000
   35    6.0053787310    3.0026888900    3.0026888900    0.0000000000    0.0000000000    0.0000000000
   55    6.0053787310    0.0000000000    6.0053787310    0.0000000000    0.0000000000    0.0000000000
   55    6.0053787310    6.0053787310    0.0000000000    0.0000000000    0.0000000000    0.0000000000
   55    6.0053787310    6.0053787310    6.0053787310    0.0000000000    0.0000000000    0.0000000000
 FRAMES
1      0.0000000000    0.0000000000    0.0000000000      6.0053787310    0.0000000000    0.0000000000
1      0.0000000000    0.0000000000    0.0000000000      0.0000000000    6.0053787310    0.0000000000
1      0.0000000000    0.0000000000    0.0000000000      0.0000000000    0.0000000000    6.0053787310
1      0.0000000000    0.0000000000    6.0053787310      6.0053787310    0.0000000000    6.0053787310
1      0.0000000000    0.0000000000    6.0053787310      0.0000000000    6.0053787310    6.0053787310
1      0.0000000000    6.0053787310    0.0000000000      6.0053787310    6.0053787310    0.0000000000
1      0.0000000000    6.0053787310    0.0000000000      0.0000000000    6.0053787310    6.0053787310
1      0.0000000000    6.0053787310    6.0053787310      6.0053787310    6.0053787310    6.0053787310
1      6.0053787310    0.0000000000    0.0000000000      6.0053787310    6.0053787310    0.0000000000
1      6.0053787310    0.0000000000    0.0000000000      6.0053787310    0.0000000000    6.0053787310
1      6.0053787310    0.0000000000    6.0053787310      6.0053787310    6.0053787310    6.0053787310
1      6.0053787310    6.0053787310    0.0000000000      6.0053787310    6.0053787310    6.0053787310
