# Generated from the PW2PY python module
DIM-GROUP
        3      1
PRIMVEC
         6.005378731       0.000000000       0.000000000
         0.000000000       6.005378731       0.000000000
         0.000000000       0.000000000       6.005378731
CONVVEC
         6.005378731       0.000000000       0.000000000
         0.000000000       6.005378731       0.000000000
         0.000000000       0.000000000       6.005378731
PRIMCOORD
        5      1
       55       0.000000000       0.000000000       0.000000000
       82       3.002688890       3.002688890       3.002688890
       35       0.000000000       3.002688890       3.002688890
       35       3.002688890       0.000000000       3.002688890
       35       3.002688890       3.002688890       0.000000000
CONVCOORD
        5      1
       55       0.000000000       0.000000000       0.000000000
       82       3.002688890       3.002688890       3.002688890
       35       0.000000000       3.002688890       3.002688890
       35       3.002688890       0.000000000       3.002688890
       35       3.002688890       3.002688890       0.000000000
